# File generated by Flopy version 3.3.5 on 10/13/2023 at 10:41:57.
BEGIN options
  HEAD  FILEOUT  TRANSIENT.hds
END options

BEGIN period  1
  SAVE  HEAD  FREQUENCY  10
END period  1

