# File generated by Flopy version 3.3.5 on 10/13/2023 at 10:41:49.
BEGIN options
  COMPLEXITY  complex
END options

